   96
 8.60913090000000e+00  8.60913090000000e+00  8.60913090000000e+00
 O  1.61648009380360e+00  6.73540420357298e+00  6.72565301879514e+00     1.07306093070859e+00  3.66952745035833e-01 -5.41495658784903e-03 
 H  1.53979079482173e+00  7.04721643343918e+00  1.26829850387408e+00    -1.38657836934993e-02 -1.24902997304133e+00 -9.14685381998218e-01 
 H  1.85125008730327e+00  5.23271175045133e+00  6.60220596468366e+00    -9.68227904861810e-01 -1.83917863420815e+00 -1.91048228444410e+00 
 O  8.48468162217354e+00  8.26784873375223e+00  5.56433886068455e+00     3.99765496570187e-02  7.91725337632320e-03  5.51183603146055e-02 
 H  2.22191831468207e+00  3.57998241184258e+00  7.24867890833904e+00    -3.75679553459756e-01 -2.09832058206684e+00 -6.84290117175290e-01 
 H  7.66171324552475e+00  5.23153010384199e+00  5.72568698178478e+00     3.68045798614336e-01  6.45477650167657e-01 -1.20576866760736e+00 
 O  1.43117568785226e+00  8.24793832303410e+00  2.94890040281866e+00    -4.14714376961400e-01 -9.61920901018533e-01 -5.12152363031171e-01 
 H  8.53918067736667e-01  1.83266169748286e+00  6.90995095984470e+00     1.53617440684143e+00  1.49255964976486e+00  2.06265792975722e+00 
 H  4.08089336917604e+00  7.20060064317950e+00  6.82579768284927e+00    -1.70792654597811e+00  6.40624306945478e-01  1.28185596701767e+00 
 O  1.23904358779141e+00  2.39438879348708e+00  4.50672187403381e+00    -1.45878867684076e-02 -5.21250658615854e-02 -9.55800277924148e-01 
 H  3.66803514056690e+00  4.14610949992358e+00  8.48516583151630e+00     1.34255788813204e+00  2.76552280253035e+00 -2.86789910241797e+00 
 H  2.32125015492585e+00  8.27698052019746e+00  6.62086291093609e+00    -3.41864116390788e-01 -7.28012511629346e-01  1.12931323890032e+00 
 O  2.20261822748233e+00  4.62959183064845e+00  7.46531741839680e+00    -1.38267122088807e-01  1.91707777332631e-01  2.24110598852823e-01 
 H  4.04987633342423e+00  3.42115979970105e+00  3.72549244477983e+00     4.38462704924185e-01 -1.04250095569450e+00 -2.80326623932704e+00 
 H  8.88769537689061e-01  5.87100567032594e+00  2.06986676288443e-01     2.72684027612559e+00 -1.86099294168793e+00 -1.78630692516035e-01 
 O  8.09866171933911e+00  1.43623016036392e+00  7.27587488279125e+00     9.55800860927194e-02  2.26670019110568e-02  5.84195598488889e-01 
 H -5.71303459307277e-02  4.32648855244172e+00  9.21885339767694e-01    -3.37728553387467e-01  1.29207936169024e+00  1.79036800347267e-01 
 H  6.66598056894497e+00  3.48696469421785e+00  6.54731834446706e+00    -4.06694320162449e+00  8.38321084675089e-01 -9.39510611424240e-01 
 O  9.63067247361168e-01  5.61324121174689e+00  3.56416837816265e+00    -3.33111677576236e-01 -6.45825085529736e-01 -5.21740268924738e-02 
 H  4.93063120069890e+00  1.58170388465647e-01  6.48596091269175e+00     1.82911011782755e+00 -2.00699405794112e+00 -1.56924591328156e-01 
 H  4.44168012269828e+00  6.46802973611053e+00  1.21930202207788e+00     2.82800435977391e+00  8.84149378933638e-01  1.62764604545679e+00 
 O  3.45168067277252e+00  6.31217731948247e+00  1.64903800611760e+00    -5.41892863012091e-01 -1.77786103652914e-01  9.88571552578270e-01 
 H  3.76647493355736e-01  3.75681141813352e+00  6.47371693916174e+00    -1.67712927011958e-01 -1.70504821918392e+00 -9.47903108880475e-03 
 H  6.02914865062009e+00  5.91518645556768e+00  4.28602187885117e+00     2.05487915806810e+00  1.10851980161166e+00  1.53839656663589e+00 
 O  6.05409140777275e+00  2.61789425934454e+00  1.26260561981166e+00    -7.21395914026682e-02 -3.05752924979033e-01  2.06065956177263e-01 
 H  5.11926239073662e+00  4.10348596265268e+00  2.66310362541401e+00     8.05619761695121e-01 -3.63596820951798e+00 -5.17130189912789e-01 
 H  1.24359063065938e+00  7.98238476262192e+00  3.84150009569827e+00     1.92475991242609e+00  3.59840400788884e+00  3.06274395846003e+00 
 O  3.49398856758769e+00  3.26345058916748e+00  5.53852606985987e+00     1.88709096134986e-01 -7.56900240767376e-01 -5.67802757014656e-01 
 H  7.76139637383332e+00  7.46373528129245e+00  7.61920780789115e+00    -9.93396742608607e-01  1.00515704806891e+00 -1.17865636307231e+00 
 H  6.45976905927994e+00  6.25945100898737e+00  5.80818564757381e+00     2.71832546497408e+00  5.58151408418503e-01  1.55665160047243e+00 
 O  3.32946960178799e+00  2.21215736000905e+00  2.39188551930546e+00     3.87260103491589e-03  1.47964617374391e-01 -3.38692147413610e-01 
 H  8.45560324697327e+00  3.12533802441586e+00  5.37362249139905e+00    -6.90553608424537e-01  8.62197340522334e-01 -4.10455656203479e-01 
 H  6.87558026106203e+00  4.11195305277689e+00  4.97424226618444e-01     2.69520155861322e-01 -5.57527243996885e-01  1.03506951943033e+00 
 O  8.61287085849828e+00  1.25411667839570e+00  1.18650715232989e+00     1.61727425421820e-01  1.70796185791194e-01 -1.61783240846053e-01 
 H  8.59261932950324e+00  8.16359213823879e+00  4.58728096448595e+00     1.61896924830988e+00  1.64261467932675e+00  9.93771650846957e-02 
 H  5.50087749135100e+00  6.17662098448618e+00  7.04206507823519e+00    -2.50485763289218e+00  4.64921192757795e-01  2.47768023549950e+00 
 O  7.55927414732488e+00  8.27765432523922e+00  2.69516022603469e+00    -2.59196761384948e-01 -2.49922956649697e-02 -4.19652564767809e-01 
 H  1.52964616204250e+00  3.61284891063811e+00  2.20321220487520e-01     1.44452128010684e-01 -1.23786535256588e+00 -7.13098679144289e-01 
 H  8.19919255363507e+00  4.03146853956249e-01  6.21927126567239e+00    -1.91381725648913e+00  5.90398556757631e-01  2.99966631197078e+00 
 O  5.96423891297581e+00  3.02162317430409e+00  5.98991158674154e+00    -5.00355499341716e-01  6.79060464890920e-02 -2.78281614453721e-01 
 H  4.86659483545955e+00  3.41372025977618e+00  7.50917892984794e+00     2.47156268674858e+00  1.26661431398720e+00 -1.39185232099771e+00 
 H  7.34484148989552e+00  1.94141836127714e+00  7.44397111184966e+00    -5.67564278635766e-01  2.25838894747055e+00  1.83394528178600e+00 
 O  1.76954287069516e+00  1.90923326600418e+00  7.28030394038049e+00     1.89442566934800e-01  1.08948551552385e-02 -6.08015862499324e-01 
 H  3.84102081702439e+00  4.05465602437048e+00  5.21492644383036e+00    -1.86004518902333e+00  7.46941298642735e-01 -1.06145727983936e+00 
 H  5.81977637085263e+00  4.60780895539805e-01  4.94558034436482e+00    -2.90362047014836e+00  2.71484067595448e+00  1.11941553637415e+00 
 O  7.22952687992397e+00  6.77097560619868e+00  7.94757829562534e+00     3.98376316570949e-02 -1.55861677982164e-01  6.95276825879042e-01 
 H  2.48070089390926e+00  6.00403110142135e+00  1.57408238326809e+00     1.81913040968380e+00  8.99924180998957e-01  1.04758726511015e+00 
 H  8.10817174733524e+00  1.69369916305498e+00  2.56400684869269e-01    -1.27997100291380e+00 -1.59653866646864e+00 -5.10820350763531e-01 
 O  1.03231322371147e+00  6.66128534404530e+00  6.23835259371905e-01    -2.39413142073647e-01  3.01338550070535e-01  1.01977204978383e-01 
 H  5.07914592133201e+00  2.98308830741302e+00  5.59080031606797e+00    -6.18225096345643e-01  2.95639660807262e-01 -6.74477550231094e-01 
 H  6.75483009212251e+00  2.12427258237923e+00  1.59577209702858e+00     7.27323008194851e-01 -1.65726936845902e+00  4.78156290695124e-02 
 O  5.74163785712168e+00  4.37321033925022e-01  6.88995676004093e+00     9.80610746019984e-02  3.03257647845395e-01 -5.76305117655014e-01 
 H  4.51637794056944e+00  4.11220151689156e-01  4.82853958690324e-01    -9.18251574610890e-01  6.69770042561516e-01  4.18624580002543e-01 
 H  2.62584360974867e+00  1.88291354395231e+00  1.71132649188302e+00    -2.61731398900744e-01 -3.03739228758511e-01  1.17781247409669e+00 
 O  3.25579024643437e+00  6.41395423794497e+00  4.40937694031454e+00    -4.71927985210901e-01  7.59744829994124e-02 -1.02512153694509e+00 
 H  1.73371400201235e+00  4.17869130116772e+00  1.89930593907001e+00    -3.72817903128365e-01  1.47523926599600e-02  6.73354096186404e-02 
 H  2.82961767612459e+00  2.65597339687938e+00  6.02832745976661e+00    -1.96431669068960e+00 -1.29101592018653e+00  5.69358329830747e-01 
 O  4.80485836485202e+00  3.95202604180977e+00  3.49933253748214e+00    -9.82502008507280e-02  9.40039666236252e-01  8.44483411147835e-01 
 H  4.48174444223295e+00  5.04095354892389e+00  7.86043351312618e+00     4.97298126552542e-01  6.11625847598639e-01  2.90101888894026e+00 
 H  7.45581858564124e+00  2.71660612654892e+00  2.66960239714569e+00    -9.73343014724368e-01 -1.47512061838818e+00  1.84486466915973e+00 
 O  5.12337334111597e+00  8.18282079208932e+00  7.77652148531165e-01    -5.91573806629616e-02 -9.70352629913691e-04  9.54244225347424e-01 
 H  1.37586682828607e+00  6.32081619392179e+00  7.53309108441896e+00     3.55565064679922e-01  3.12887058521086e+00 -4.81948106288101e-01 
 H  3.65068697421730e+00  6.05312219018848e+00  5.27207913670254e+00     1.83997183178103e-01 -1.97224839007371e-01  1.67748072388569e+00 
 O  4.69551767780271e+00  6.37829202620198e+00  6.54466822125630e+00     5.24237614700254e-01  2.45718422497415e-01  3.31253977229809e-01 
 H  2.18336707588825e+00  2.10545418236331e-01  3.04351157095669e+00     2.52155173872596e+00  1.99305918654970e+00  5.86599228156098e-02 
 H  5.82034568951488e+00  7.84361995686042e+00  1.27456308795063e+00     6.42540377349770e-01  1.36417790306264e+00 -2.54083789835190e+00 
 O  3.17759727060228e+00  8.59403728951378e+00  6.23209583342519e+00     3.13682590546781e-01  2.21365956022772e-01  5.19261534130763e-01 
 H  3.62758399829688e-01  4.57834887963139e-01  1.46600637060605e+00     2.44862789900468e-01 -7.04587460726276e-01 -2.04437206903395e+00 
 H  7.23960745084391e+00  6.10104038966676e+00  3.03050886902153e-02     8.04408654082402e-01  1.67859240316923e+00 -2.13906857653943e+00 
 O  7.77305885052135e+00  4.36464758674638e+00  4.52593783530457e-01     3.32278180489252e-01  4.85975346261309e-01  1.27743475417261e-02 
 H  7.16979928866502e-01  3.21359799032755e+00  4.17812050069614e+00    -3.90745724892584e-01  3.50747882114146e+00 -1.75264391327007e-01 
 H  6.64533743779731e+00  8.39712292504322e+00  3.08655197997263e+00    -1.82498471419040e-01  1.09321638049916e+00 -1.17187460933927e-01 
 O  6.86776802140433e+00  5.57766261839280e+00  5.37101271593012e+00    -2.26603254592779e-02 -9.27736841263024e-02 -1.46858572898345e-02 
 H  2.92165564624961e+00  8.01668893848646e+00  5.55830977794863e+00    -9.39963505586220e-01 -3.96349393987647e-01  8.42812731324773e-01 
 H  1.45661145590680e-01  5.12072639219926e+00  3.30723929952827e+00    -1.41259911205741e+00  9.05579879766304e-01  8.51260569583500e-01 
 O  4.68004413228871e+00  4.17178690546372e+00  8.14723448311711e+00     1.82136124533085e-01  7.06338974960464e-02 -7.20751450820887e-02 
 H  6.59943737490301e+00  2.72869286316582e-01  7.30393607235320e+00     2.80517902394975e+00 -1.78038649841197e+00 -1.35336178673151e-01 
 H  6.82642825238436e+00  3.00062046975540e+00  4.39941220762511e+00     7.24435763665121e-02 -1.80273456490622e+00  8.91930768464289e-02 
 O  5.44823583186208e+00  4.74015342729044e-01  4.01619839651254e+00     3.61004030866564e-01  4.84367325209138e-01 -5.57795998890370e-01 
 H  7.33398868629191e-01  6.56329876637264e+00  3.51917472807453e+00    -4.83515233358444e-01 -6.19997334120489e-01  1.59661920846234e+00 
 H  1.84490921149510e+00  1.64771504679030e+00  4.66908602798144e+00    -1.51307107848172e+00 -2.07160681972692e+00 -3.27755557054109e+00 
 O  2.86439011965171e+00  7.73266363667042e-01  3.02123970017092e-01    -2.81445755644066e-02 -1.52589912827321e-01  7.22477720734591e-02 
 H  4.07201858099023e+00  2.89754466108257e+00  2.57805027457701e+00     2.25721897663023e-01 -4.94385559498675e-02  9.14212660223128e-01 
 H  5.15090835273503e+00  2.34865359478109e+00  7.28202524360691e-01    -8.25932252385273e-01 -2.68853014395933e-01  4.08766581695398e-01 
 O  5.62768225865115e+00  6.49529100043742e+00  3.47170494569958e+00     2.45846506992858e-03 -5.78177928768337e-01  3.24687690612422e-01 
 H  7.67809445273437e+00  5.76687270454834e-01  2.11444377623208e+00    -1.25683311018047e+00  8.31287686866789e-01  2.21261608637729e+00 
 H  6.57012594080178e-01  6.94513551790559e+00  6.31299250396525e+00     3.13445248341557e+00 -2.71628199409775e+00  3.61305867732233e-01 
 O  1.25365458104325e+00  3.65665353751366e+00  1.15421430001899e+00     1.60585671533779e-01  2.60409388676566e-01 -5.45819822550129e-02 
 H  2.48492761150103e+00  1.31262264549145e+00  7.92711176304408e+00    -2.88604827858724e+00  4.15727390611937e+00 -4.17690438137606e-01 
 H  4.59969029034379e+00  8.41675956111008e-01  3.93944477533132e+00     5.39295417207772e-01 -1.87755860523973e+00  4.39670141755462e-01 
 O  8.40526090569723e+00  3.98946884845046e+00  5.82643647427460e+00    -5.70187763753910e-01 -6.54661080008793e-01 -1.70338552154754e-01 
 H  2.31259284097100e+00  5.17072130191998e-01  1.00883987167913e+00    -1.23160159478380e+00 -1.13478367444148e+00  1.97693842542795e+00 
 H  2.57745769061713e+00  5.88311181085434e+00  3.99502052987850e+00     1.81822794563861e+00  4.75337282317471e-01  2.93826338413604e-01 
 O  7.42538192008582e+00  2.94951673387003e+00  3.62241232639214e+00    -6.67178438477808e-02 -1.65885596705555e-01 -2.52109209860797e-01 
 H  4.24716431479447e+00  6.71337663945293e+00  3.55270714920542e+00    -9.77003154809110e-01 -1.29713057819516e+00 -1.32351556811532e+00 
 H  6.24943143087096e+00  6.87236660007366e+00  2.87603955948663e+00    -5.49893768101494e-01 -2.23918678776174e+00  2.27376111943316e-01 
